
#######################################################################
#
#                 Cambridge Crystallographic Data Centre
#                                CCDC 
#
#######################################################################
#
# If this CIF has been generated from an entry in the Cambridge 
# Structural Database, then it will include bibliographic, chemical, 
# crystal, experimental, refinement or atomic coordinate data resulting 
# from the CCDC's data processing and validation procedures.
#
#######################################################################

data_added_by_encifer
_symmetry_cell_setting           trigonal
_symmetry_space_group_name_H-M   'P -3'
_symmetry_Int_Tables_number      147
_space_group_name_Hall           '-P 3'
loop_
_symmetry_equiv_pos_site_id
_symmetry_equiv_pos_as_xyz
1 x,y,z
2 -y,x-y,z
3 -x+y,-x,z
4 -x,-y,-z
5 y,-x+y,-z
6 x-y,x,-z
_cell_length_a                   9.8109(6)
_cell_length_b                   9.8109(6)
_cell_length_c                   14.8403(12)
_cell_angle_alpha                90.00
_cell_angle_beta                 90.00
_cell_angle_gamma                120.00
_cell_volume                     1237.06
loop_
_atom_site_label
_atom_site_type_symbol
_atom_site_fract_x
_atom_site_fract_y
_atom_site_fract_z
Pb1B Pb -0.00445(6) 0.22423(5) 0.37576(6)
Pb2B Pb 0.3333 0.6667 0.25395(7)
Pb2C Pb 0.3333 0.6667 0.49982(8)
P1A P 0.3740(3) 0.4021(3) 0.3698(3)
O1B O 0.4953(10) 0.3468(9) 0.3692(9)
O2B O 0.2777(14) 0.3560(13) 0.2826(6)
O3A O 0.2533(14) 0.3211(14) 0.4471(6)
O4B O 0.4563(10) 0.5820(10) 0.3809(9)
O5A O 0.0000 0.0000 0.330(3)
O5B O 0.0000 0.0000 0.395(3)
Pb1A Pb -0.25369(5) 0.00015(5) 0.12920(4)
P1B P -0.0230(3) 0.3765(3) 0.1215(3)
O1A O 0.1578(9) 0.4786(9) 0.1223(9)
O2A O -0.0807(14) 0.2676(14) 0.2034(6)
O3B O -0.0869(16) 0.2716(17) 0.0366(6)
O4A O -0.0949(9) 0.4866(10) 0.1233(9)
Pb2D Pb 0.6667 0.3333 0.25587(7)
Pb2A Pb 0.3333 0.6667 0.00402(8)
Pb1B Pb -0.22423(5) -0.22868(8) 0.37576(6)
P1A P -0.4021(3) -0.0281(4) 0.3698(3)
O1B O -0.3468(9) 0.1485(13) 0.3692(9)
O2B O -0.3560(13) -0.0783(19) 0.2826(6)
O3A O -0.3211(14) -0.0678(20) 0.4471(6)
O4B O -0.5820(10) -0.1257(14) 0.3809(9)
Pb1A Pb -0.00015(5) -0.25384(7) 0.12920(4)
P1B P -0.3765(3) -0.3995(4) 0.1215(3)
O1A O -0.4786(9) -0.3208(13) 0.1223(9)
O2A O -0.2676(14) -0.3483(20) 0.2034(6)
O3B O -0.2716(17) -0.3585(23) 0.0366(6)
O4A O -0.4866(10) -0.5815(13) 0.1233(9)
Pb1B Pb -0.77132(8) 0.00445(6) 0.37576(6)
P1A P -0.9719(4) -0.3740(3) 0.3698(3)
O1B O -1.1485(13) -0.4953(10) 0.3692(9)
O2B O -0.9217(19) -0.2777(14) 0.2826(6)
O3A O -0.9322(20) -0.2533(14) 0.4471(6)
O4B O -0.8743(14) -0.4563(10) 0.3809(9)
O5B O -1.0000 0.0000 0.395(3)
Pb1A Pb -0.74616(7) 0.25369(5) 0.12920(4)
P1B P -0.6005(4) 0.0230(3) 0.1215(3)
O1A O -0.6792(13) -0.1578(9) 0.1223(9)
O2A O -0.6517(20) 0.0807(14) 0.2034(6)
O3B O -0.6415(23) 0.0869(16) 0.0366(6)
O4A O -0.4185(13) 0.0949(9) 0.1233(9)
Pb1B Pb -1.00445(6) -0.77577(5) 0.37576(6)
Pb1B Pb -1.00445(6) 0.22423(5) 0.37576(6)
Pb1B Pb -1.22423(5) -0.22868(8) 0.37576(6)
Pb1B Pb 0.77577(5) 0.77132(8) 0.37576(6)
Pb1B Pb 0.22868(8) 0.00445(6) 0.37576(6)
Pb1B Pb -0.99555(6) -0.22423(5) 0.62424(6)
Pb1B Pb 0.22423(5) 0.22868(8) 0.62424(6)
Pb1B Pb -0.22868(8) -0.00445(6) 0.62424(6)
Pb2B Pb -0.6667 -0.3333 0.25395(7)
Pb2C Pb -0.6667 -0.3333 0.49982(8)
Pb2C Pb -1.3333 -0.6667 0.50018(8)
Pb2C Pb -0.3333 0.3333 0.50018(8)
Pb2C Pb 0.6667 0.3333 0.50018(8)
O1B O 0.6532(9) 0.1485(13) 0.3692(9)
O1B O 0.8515(13) 0.5047(10) 0.3692(9)
O1B O 0.5047(10) 0.6532(9) 0.6308(9)
O1B O 0.3468(9) 0.8515(13) 0.6308(9)
O1B O 0.1485(13) 0.4953(10) 0.6308(9)
O2B O -0.7223(14) 0.3560(13) 0.2826(6)
O2B O 0.6440(13) 0.9217(19) 0.2826(6)
O2B O 0.0783(19) -0.2777(14) 0.2826(6)
O2B O 0.0783(19) 0.7223(14) 0.2826(6)
O3A O -0.2533(14) -0.3211(14) 0.5529(6)
O3A O -0.6789(14) 0.0678(20) 0.5529(6)
O3A O -0.0678(20) 0.2533(14) 0.5529(6)
O4B O -0.5437(10) -0.4180(10) 0.3809(9)
O4B O 0.4180(10) 0.8743(14) 0.3809(9)
O4B O 0.1257(14) 0.5437(10) 0.3809(9)
O5A O -1.0000 0.0000 0.330(3)
Pb1A Pb -1.00015(5) -0.25384(7) 0.12920(4)
Pb1A Pb -0.00015(5) 0.74616(7) 0.12920(4)
Pb1A Pb -0.74616(7) -0.74631(5) 0.12920(4)
Pb1A Pb 0.25384(7) 0.25369(5) 0.12920(4)
Pb1A Pb -0.74631(5) -0.00015(5) -0.12920(4)
Pb1A Pb 0.00015(5) 0.25384(7) -0.12920(4)
Pb1A Pb -0.25384(7) -0.25369(5) -0.12920(4)
O1A O -0.8422(9) 0.4786(9) 0.1223(9)
O1A O 0.5214(9) 0.6792(13) 0.1223(9)
O1A O 0.3208(13) -0.1578(9) 0.1223(9)
O1A O 0.3208(13) 0.8422(9) 0.1223(9)
O3B O 0.0869(16) -0.2716(17) -0.0366(6)
O3B O 0.0869(16) 0.7284(17) -0.0366(6)
O3B O -0.7284(17) 0.3585(23) -0.0366(6)
O3B O 0.2716(17) 0.3585(23) -0.0366(6)
O3B O -0.3585(23) -0.0869(16) -0.0366(6)
O3B O 0.6415(23) 0.9131(16) -0.0366(6)
O4A O -0.0949(9) -0.5134(10) 0.1233(9)
O4A O 0.9051(9) 0.4866(10) 0.1233(9)
O4A O -0.4866(10) 0.4185(13) 0.1233(9)
O4A O 0.5134(10) 0.4185(13) 0.1233(9)
O4A O 0.5815(13) 0.0949(9) 0.1233(9)
O4A O 0.0949(9) 0.5134(10) -0.1233(9)
O4A O 0.4866(10) 0.5815(13) -0.1233(9)
O4A O 0.4185(13) 0.9051(9) -0.1233(9)
Pb2D Pb -1.3333 -0.6667 0.25587(7)
Pb2D Pb -0.3333 -0.6667 0.25587(7)
Pb2D Pb -0.3333 0.3333 0.25587(7)
Pb2A Pb -0.6667 -0.3333 0.00402(8)
Pb2A Pb -0.3333 -0.6667 -0.00402(8)
Pb2A Pb -0.3333 0.3333 -0.00402(8)

#END
