
Pb9Cu(PO4)6O
1.00000000000000
9.9306823821051555   -0.0000014818366361
-4.9653399077953200    8.6002239607356703
0.0000000000000000    0.0000000000000000
Pb   Cu   P    O
9    1    6    25
Direct
0.9986807449642078  0.7699202447216552  0.2474756380877509
0.9977014382162520  0.2577003216124319  0.7545056960306785
0.2300797552783452  0.2287605002425670  0.2474756380877509
0.7422996783875685  0.7400011176038168  0.7545056960306785
0.7712395147574378  0.0013192690357936  0.2474756380877509
0.2599988973961879  0.0022985757837491  0.7545056960306785
0.3333333129999971  0.6666666269999979  0.0102252768912011
0.3333333129999971  0.6666666269999979  0.4962563424132084
0.6666666870000029  0.3333333429999996  0.5217140548665616
0.6666666870000029  0.3333333429999996  0.0634955699714910
0.0000000000000000
-0.0000000000000000
7.4109945172796605
3
0.6238378061607577  0.5940989414527301  0.2330614375419467
0.3715115645822017  0.3913852574380640  0.7499251076346213
0.4059010585472700  0.0297388347080183  0.2330614375419467
0.6086147425619355  0.9801263371441329  0.7499251076346213
0.9702611952919840  0.3761622238392447  0.2330614375419467
0.0198736928558696  0.6284884654178010  0.7499251076346213
0.4970341950086190  0.6419127807282180  0.2504819573050943
0.4722574174374839  0.3124116086150668  0.7489819492636393
0.3580872192717823  0.8551214142804011  0.2504819573050943
0.6875883913849331  0.1598458078224275  0.7489819492636393
0.1448785557195963  0.5029657759913753  0.2504819573050943
0.8401541621775773  0.5277425535625101  0.7489819492636393
0.7465890784344098  0.6974373665162791  0.0877326196589775
0.2518710331486960  0.3302579489920529  0.9082269759127742
0.3025626334837207  0.0491516819181211  0.0877326196589775
0.6697420510079468  0.9216131131566275  0.9082269759127742
0.9508483470818850  0.2534109515655927  0.0877326196589775
0.0783869158433784  0.7481289968513065  0.9082269759127742
0.2751067320564097  0.3631086026138700  0.5737407252403873
0.7132743878686607  0.6201447197159712  0.4140528338576862
0.6368913973861298  0.9119981584425314  0.5737407252403873
0.3798552802840290  0.0931296381526946  0.4140528338576862
0.0880018705574747  0.7248932979435926  0.5737407252403873
0.9068703908473114  0.2867256421313418  0.4140528338576862
0.5441603686812513  0.4191736441937305  0.1764358135764958
0.4780900223868556  0.5733419996779769  0.7722935441387523
0.5808263258062671  0.1249867244875282  0.1764358135764958
0.4266579703220141  0.9047479627088743  0.7722935441387523
0.8750132455124694  0.4558396313187486  0.1764358135764958
0.0952520072911234  0.5219099776131445  0.7722935441387523
-0.0000000000000000  0.0000000000000000  0.2917658511111268

#======================================================================
# CRYSTAL DATA
#----------------------------------------------------------------------
data_VESTA_phase_1

_chemical_name_common                  ''
_cell_length_a                         9.8109(7)
_cell_length_b                         9.8109(7)
_cell_length_c                         14.8403(13)
_cell_angle_alpha                      90.000000
_cell_angle_beta                       90.000000
_cell_angle_gamma                      120.000000
_cell_volume                           1237.060601
_space_group_name_H-M_alt              'P -3'
_space_group_IT_number                 147

loop_
_space_group_symop_operation_xyz
   'x, y, z'
   '-x, -y, -z'
   '-y, x-y, z'
   'y, -x+y, -z'
   '-x+y, -x, z'
   'x-y, x, -z'

loop_
   _atom_site_label
   _atom_site_occupancy
   _atom_site_fract_x
   _atom_site_fract_y
   _atom_site_fract_z
   _atom_site_adp_type
   _atom_site_U_iso_or_equiv
   _atom_site_type_symbol
   Pb1A       1.0     0.25369(5)  -0.00015(5)  -0.12920(4)  Uani  0.012374 Pb
   Pb1B       1.0    -0.00445(6)   0.22423(5)   0.37576(6)  Uani  0.021167 Pb
   Pb2A       1.0     0.333333     0.666667     0.00402(8)  Uani  0.012389 Pb
   Pb2B       1.0     0.333333     0.666667     0.25395(7)  Uani  0.013167 Pb
   Pb2C       1.0     0.333333     0.666667     0.49982(8)  Uani  0.018633 Pb
   Pb2D       1.0     0.333333     0.666667    -0.25587(7)  Uani  0.012522 Pb
   P1A        1.0     0.3740(4)    0.4021(4)    0.3698(4)   Uani  0.007833 P
   P1B        1.0     0.0230(4)   -0.3765(4)   -0.1215(4)   Uani  0.008411 P
   O1A        1.0    -0.1578(9)   -0.4786(9)   -0.1223(9)   Uani  0.013222 O
   O1B        1.0     0.4953(10)   0.3468(9)    0.3692(9)   Uani  0.013222 O
   O2A        1.0     0.0807(14)  -0.2676(14)  -0.2034(7)   Uani  0.012667 O
   O2B        1.0     0.2777(14)   0.3560(13)   0.2826(7)   Uani  0.012667 O
   O3A        1.0     0.2533(14)   0.3211(14)   0.4471(7)   Uani  0.020667 O
   O3B        1.0     0.0869(16)  -0.2716(17)  -0.0366(7)   Uani  0.020667 O
   O4A        1.0     0.0949(9)   -0.4866(10)  -0.1233(9)   Uani  0.016444 O
   O4B        1.0     0.4563(10)   0.5820(10)   0.3809(9)   Uani  0.016444 O
   O5A        0.5500  0.000000     0.000000     0.330(3)    Uani  0.029778 O
   O5B        0.4500  0.000000     0.000000     0.395(3)    Uani  0.029778 O

loop_
   _atom_site_aniso_label
   _atom_site_aniso_U_11
   _atom_site_aniso_U_22
   _atom_site_aniso_U_33
   _atom_site_aniso_U_12
   _atom_site_aniso_U_13
   _atom_site_aniso_U_23
   Pb1A	 0.00990  0.00990  0.01811  0.00554  0.00130 -0.00030
   Pb1B	 0.00820  0.01110  0.04350  0.00430 -0.00040  0.00110
   Pb2A	 0.01350  0.01350  0.01010  0.00670  0.00000  0.00000
   Pb2B	 0.01400  0.01400  0.01150  0.00700  0.00000  0.00000
   Pb2C	 0.02260  0.02260  0.01070  0.01130  0.00000  0.00000
   Pb2D	 0.01330  0.01330  0.01090  0.00660  0.00000  0.00000
   P1A	 0.00610  0.00830  0.00990  0.00420 -0.00160 -0.00200
   P1B	 0.00440  0.00710  0.01230  0.00180  0.00040  0.00170
   O1A	 0.00500  0.01100  0.02100  0.00200  0.00100  0.00100
   O1B	 0.00500  0.01100  0.02100  0.00200  0.00100  0.00100
   O2A	 0.01000  0.01200  0.01400  0.00400 -0.00100  0.00100
   O2B	 0.01000  0.01200  0.01400  0.00400 -0.00100  0.00100
   O3A	 0.01500  0.02700  0.01000  0.00300  0.00200  0.00000
   O3B	 0.01500  0.02700  0.01000  0.00300  0.00200  0.00000
   O4A	 0.01000  0.01200  0.02800  0.00600  0.00200 -0.00300
   O4B	 0.01000  0.01200  0.02800  0.00600  0.00200 -0.00300
   O5A	 0.01500  0.01500  0.06000  0.00800  0.00000  0.00000
   O5B	 0.01500  0.01500  0.06000  0.00800  0.00000  0.00000
