data_Mg-123-relaxed
_cell_length_a         3.402120
_cell_length_b         3.402120
_cell_length_c        25.119100
_cell_angle_alpha       90.0000
_cell_angle_beta        90.0000
_cell_angle_gamma      120.0000
_cell_formula_units_Z           1
_symmetry_space_group_name_H-M 'P 3 m 1'
loop_
_atom_site_label
_atom_site_type_symbol
_atom_site_fract_x
_atom_site_fract_y
_atom_site_fract_z
_atom_site_occupancy
_atom_site_B_iso_or_equiv
Yb1   Yb   0.000000   0.000000   0.002784  1.0000   0.000
Yb2   Yb   0.333333   0.666667   0.669297  1.0000   0.000
Yb3   Yb   0.666667   0.333333   0.335859  1.0000   0.000
Mg1   Mg   0.000000   0.000000   0.214505  1.0000   0.000
Mg2   Mg   0.333333   0.666667   0.881449  1.0000   0.000
Mg3   Mg   0.666667   0.333333   0.547795  1.0000   0.000
Ga1   Ga   0.000000   0.000000   0.788196  1.0000   0.000
Ga2   Ga   0.333333   0.666667   0.454638  1.0000   0.000
Ga3   Ga   0.666667   0.333333   0.121492  1.0000   0.000
O1    O    0.000000   0.000000   0.291786  1.0000   0.000
O2    O    0.333333   0.666667   0.958713  1.0000   0.000
O3    O    0.666667   0.333333   0.625121  1.0000   0.000
O4    O    0.000000   0.000000   0.714353  1.0000   0.000
O5    O    0.333333   0.666667   0.380833  1.0000   0.000
O6    O    0.666667   0.333333   0.047710  1.0000   0.000
O7    O    0.000000   0.000000   0.126030  1.0000   0.000
O8    O    0.333333   0.666667   0.792742  1.0000   0.000
O9    O    0.666667   0.333333   0.459174  1.0000   0.000
O10   O    0.000000   0.000000   0.865961  1.0000   0.000
O11   O    0.333333   0.666667   0.532363  1.0000   0.000
O12   O    0.666667   0.333333   0.199198  1.0000   0.000


